# generated using pymatgen
data_LaFeO3
_symmetry_space_group_name_H-M   Pnma
_cell_length_a   5.66192400
_cell_length_b   7.94467100
_cell_length_c   5.60080500
_cell_angle_alpha   90.00000000
_cell_angle_beta   90.00000000
_cell_angle_gamma   90.00000000
_symmetry_Int_Tables_number   62
_chemical_formula_structural   LaFeO3
_chemical_formula_sum   'La4 Fe4 O12'
_cell_volume   251.93610169
_cell_formula_units_Z   4
loop_
 _symmetry_equiv_pos_site_id
 _symmetry_equiv_pos_as_xyz
  1  'x, y, z'
  2  '-x, -y, -z'
  3  '-x+1/2, -y, z+1/2'
  4  'x+1/2, y, -z+1/2'
  5  'x+1/2, -y+1/2, -z+1/2'
  6  '-x+1/2, y+1/2, z+1/2'
  7  '-x, y+1/2, -z'
  8  'x, -y+1/2, z'
loop_
 _atom_site_type_symbol
 _atom_site_label
 _atom_site_symmetry_multiplicity
 _atom_site_fract_x
 _atom_site_fract_y
 _atom_site_fract_z
 _atom_site_occupancy
  La  La0  4  0.03825900  0.25000000  0.99061900  1
  Fe  Fe1  4  0.00000000  0.00000000  0.50000000  1
  O  O2  8  0.21202500  0.54627500  0.21259400  1
  O  O3  4  0.02173500  0.75000000  0.58612000  1
